<?xml version="1.0" encoding="UTF-8"?>

<!-- generated on 2023-05-26 13:28:07 by Eclipse SUMO netedit Version 1.16.0
<configuration xmlns:xsi="http://www.w3.org/2001/XMLSchema-instance" xsi:noNamespaceSchemaLocation="http://sumo.dlr.de/xsd/netconvertConfiguration.xsd">

    <input>
        <sumo-net-file value="C:\Users\Jeremy\Desktop\platoon_management\intersectionPlatoon\sumocfg\intersection.net.xml"/>
    </input>

    <output>
        <output-file value="C:\Users\Jeremy\Desktop\platoon_management\intersectionPlatoon\sumocfg\intersection.net.xml"/>
    </output>

    <processing>
        <offset.disable-normalization value="true"/>
    </processing>

    <junctions>
        <no-turnarounds value="true"/>
    </junctions>

    <netedit>
        <new-network value="false"/>
    </netedit>

</configuration>
-->

<net version="1.16" junctionCornerDetail="5" limitTurnSpeed="5.50" xmlns:xsi="http://www.w3.org/2001/XMLSchema-instance" xsi:noNamespaceSchemaLocation="http://sumo.dlr.de/xsd/net_file.xsd">

    <location netOffset="0.00,0.00" convBoundary="-1600.00,-800.00,1600.00,800.00" origBoundary="10000000000.00,10000000000.00,-10000000000.00,-10000000000.00" projParameter="!"/>

    <edge id=":2_0" function="internal">
        <lane id=":2_0_0" index="0" speed="6.51" length="9.03" shape="-8.00,13.60 -8.35,11.15 -9.40,9.40 -11.15,8.35 -13.60,8.00"/>
    </edge>
    <edge id=":2_1" function="internal">
        <lane id=":2_1_0" index="0" speed="30.00" length="27.20" shape="-8.00,13.60 -8.00,-13.60"/>
        <lane id=":2_1_1" index="1" speed="30.00" length="27.20" shape="-4.80,13.60 -4.80,-13.60"/>
        <lane id=":2_1_2" index="2" speed="30.00" length="27.20" shape="-1.60,13.60 -1.60,-13.60"/>
    </edge>
    <edge id=":2_4" function="internal">
        <lane id=":2_4_0" index="0" speed="10.36" length="5.01" shape="-1.60,13.60 -0.89,8.64"/>
    </edge>
    <edge id=":2_20" function="internal">
        <lane id=":2_20_0" index="0" speed="10.36" length="19.50" shape="-0.89,8.64 -0.65,6.95 2.20,2.20 6.95,-0.65 13.60,-1.60"/>
    </edge>
    <edge id=":2_5" function="internal">
        <lane id=":2_5_0" index="0" speed="6.51" length="9.03" shape="13.60,8.00 11.15,8.35 9.40,9.40 8.35,11.15 8.00,13.60"/>
    </edge>
    <edge id=":2_6" function="internal">
        <lane id=":2_6_0" index="0" speed="30.00" length="27.20" shape="13.60,8.00 -13.60,8.00"/>
        <lane id=":2_6_1" index="1" speed="30.00" length="27.20" shape="13.60,4.80 -13.60,4.80"/>
        <lane id=":2_6_2" index="2" speed="30.00" length="27.20" shape="13.60,1.60 -13.60,1.60"/>
    </edge>
    <edge id=":2_9" function="internal">
        <lane id=":2_9_0" index="0" speed="10.36" length="5.01" shape="13.60,1.60 8.64,0.89"/>
    </edge>
    <edge id=":2_21" function="internal">
        <lane id=":2_21_0" index="0" speed="10.36" length="19.50" shape="8.64,0.89 6.95,0.65 2.20,-2.20 -0.65,-6.95 -1.60,-13.60"/>
    </edge>
    <edge id=":2_10" function="internal">
        <lane id=":2_10_0" index="0" speed="6.51" length="9.03" shape="8.00,-13.60 8.35,-11.15 9.40,-9.40 11.15,-8.35 13.60,-8.00"/>
    </edge>
    <edge id=":2_11" function="internal">
        <lane id=":2_11_0" index="0" speed="30.00" length="27.20" shape="8.00,-13.60 8.00,13.60"/>
        <lane id=":2_11_1" index="1" speed="30.00" length="27.20" shape="4.80,-13.60 4.80,13.60"/>
        <lane id=":2_11_2" index="2" speed="30.00" length="27.20" shape="1.60,-13.60 1.60,13.60"/>
    </edge>
    <edge id=":2_14" function="internal">
        <lane id=":2_14_0" index="0" speed="10.36" length="5.01" shape="1.60,-13.60 0.89,-8.64"/>
    </edge>
    <edge id=":2_22" function="internal">
        <lane id=":2_22_0" index="0" speed="10.36" length="19.50" shape="0.89,-8.64 0.65,-6.95 -2.20,-2.20 -6.95,0.65 -13.60,1.60"/>
    </edge>
    <edge id=":2_15" function="internal">
        <lane id=":2_15_0" index="0" speed="6.51" length="9.03" shape="-13.60,-8.00 -11.15,-8.35 -9.40,-9.40 -8.35,-11.15 -8.00,-13.60"/>
    </edge>
    <edge id=":2_16" function="internal">
        <lane id=":2_16_0" index="0" speed="30.00" length="27.20" shape="-13.60,-8.00 13.60,-8.00"/>
        <lane id=":2_16_1" index="1" speed="30.00" length="27.20" shape="-13.60,-4.80 13.60,-4.80"/>
        <lane id=":2_16_2" index="2" speed="30.00" length="27.20" shape="-13.60,-1.60 13.60,-1.60"/>
    </edge>
    <edge id=":2_19" function="internal">
        <lane id=":2_19_0" index="0" speed="10.36" length="5.01" shape="-13.60,-1.60 -8.64,-0.89"/>
    </edge>
    <edge id=":2_23" function="internal">
        <lane id=":2_23_0" index="0" speed="10.36" length="19.50" shape="-8.64,-0.89 -6.95,-0.65 -2.20,2.20 0.65,6.95 1.60,13.60"/>
    </edge>

    <edge id="-E0" from="2" to="1" priority="-1">
        <lane id="-E0_0" index="0" speed="30.00" length="1586.40" shape="-13.60,8.00 -1600.00,8.00"/>
        <lane id="-E0_1" index="1" speed="30.00" length="1586.40" shape="-13.60,4.80 -1600.00,4.80"/>
        <lane id="-E0_2" index="2" speed="30.00" length="1586.40" shape="-13.60,1.60 -1600.00,1.60"/>
    </edge>
    <edge id="-E1" from="3" to="2" priority="-1">
        <lane id="-E1_0" index="0" speed="30.00" length="1586.40" shape="1600.00,8.00 13.60,8.00"/>
        <lane id="-E1_1" index="1" speed="30.00" length="1586.40" shape="1600.00,4.80 13.60,4.80"/>
        <lane id="-E1_2" index="2" speed="30.00" length="1586.40" shape="1600.00,1.60 13.60,1.60"/>
    </edge>
    <edge id="-E2" from="4" to="2" priority="-1">
        <lane id="-E2_0" index="0" speed="30.00" length="786.40" shape="8.00,-800.00 8.00,-13.60"/>
        <lane id="-E2_1" index="1" speed="30.00" length="786.40" shape="4.80,-800.00 4.80,-13.60"/>
        <lane id="-E2_2" index="2" speed="30.00" length="786.40" shape="1.60,-800.00 1.60,-13.60"/>
    </edge>
    <edge id="-E3" from="5" to="2" priority="-1">
        <lane id="-E3_0" index="0" speed="30.00" length="786.40" shape="-8.00,800.00 -8.00,13.60"/>
        <lane id="-E3_1" index="1" speed="30.00" length="786.40" shape="-4.80,800.00 -4.80,13.60"/>
        <lane id="-E3_2" index="2" speed="30.00" length="786.40" shape="-1.60,800.00 -1.60,13.60"/>
    </edge>
    <edge id="E0" from="1" to="2" priority="-1">
        <lane id="E0_0" index="0" speed="30.00" length="1586.40" shape="-1600.00,-8.00 -13.60,-8.00"/>
        <lane id="E0_1" index="1" speed="30.00" length="1586.40" shape="-1600.00,-4.80 -13.60,-4.80"/>
        <lane id="E0_2" index="2" speed="30.00" length="1586.40" shape="-1600.00,-1.60 -13.60,-1.60"/>
    </edge>
    <edge id="E1" from="2" to="3" priority="-1">
        <lane id="E1_0" index="0" speed="30.00" length="1586.40" shape="13.60,-8.00 1600.00,-8.00"/>
        <lane id="E1_1" index="1" speed="30.00" length="1586.40" shape="13.60,-4.80 1600.00,-4.80"/>
        <lane id="E1_2" index="2" speed="30.00" length="1586.40" shape="13.60,-1.60 1600.00,-1.60"/>
    </edge>
    <edge id="E2" from="2" to="4" priority="-1">
        <lane id="E2_0" index="0" speed="30.00" length="786.40" shape="-8.00,-13.60 -8.00,-800.00"/>
        <lane id="E2_1" index="1" speed="30.00" length="786.40" shape="-4.80,-13.60 -4.80,-800.00"/>
        <lane id="E2_2" index="2" speed="30.00" length="786.40" shape="-1.60,-13.60 -1.60,-800.00"/>
    </edge>
    <edge id="E3" from="2" to="5" priority="-1">
        <lane id="E3_0" index="0" speed="30.00" length="786.40" shape="8.00,13.60 8.00,800.00"/>
        <lane id="E3_1" index="1" speed="30.00" length="786.40" shape="4.80,13.60 4.80,800.00"/>
        <lane id="E3_2" index="2" speed="30.00" length="786.40" shape="1.60,13.60 1.60,800.00"/>
    </edge>

    <tlLogic id="2" type="static" programID="0" offset="0">
        <phase duration="30" state="GGGGgrrrrrGGGGgrrrrr"/>
        <phase duration="30" state="rrrrrGGGGgrrrrrGGGGg"/>
        <phase duration="3"  state="rrrrryyyyyrrrrryyyyy"/>
    </tlLogic>

    <junction id="1" type="dead_end" x="-1600.00" y="0.00" incLanes="-E0_0 -E0_1 -E0_2" intLanes="" shape="-1600.00,0.00 -1600.00,9.60 -1600.00,0.00"/>
    <junction id="2" type="traffic_light" x="0.00" y="0.00" incLanes="-E3_0 -E3_1 -E3_2 -E1_0 -E1_1 -E1_2 -E2_0 -E2_1 -E2_2 E0_0 E0_1 E0_2" intLanes=":2_0_0 :2_1_0 :2_1_1 :2_1_2 :2_20_0 :2_5_0 :2_6_0 :2_6_1 :2_6_2 :2_21_0 :2_10_0 :2_11_0 :2_11_1 :2_11_2 :2_22_0 :2_15_0 :2_16_0 :2_16_1 :2_16_2 :2_23_0" shape="-9.60,13.60 9.60,13.60 10.04,11.38 10.60,10.60 11.38,10.04 12.38,9.71 13.60,9.60 13.60,-9.60 11.38,-10.04 10.60,-10.60 10.04,-11.38 9.71,-12.38 9.60,-13.60 -9.60,-13.60 -10.04,-11.38 -10.60,-10.60 -11.38,-10.04 -12.38,-9.71 -13.60,-9.60 -13.60,9.60 -11.38,10.04 -10.60,10.60 -10.04,11.38 -9.71,12.38">
        <request index="0"  response="00000000000000000000" foes="00000000000111000000" cont="0"/>
        <request index="1"  response="10000000001000000000" foes="11111100001111000000" cont="0"/>
        <request index="2"  response="10000000001000000000" foes="11111100001111000000" cont="0"/>
        <request index="3"  response="10000000001000000000" foes="11111100001111000000" cont="0"/>
        <request index="4"  response="10000011101000000000" foes="11110011101111000000" cont="1"/>
        <request index="5"  response="00000011100000000000" foes="00000011100000000000" cont="0"/>
        <request index="6"  response="00000111100000011111" foes="10000111100000011111" cont="0"/>
        <request index="7"  response="00000111100000011111" foes="10000111100000011111" cont="0"/>
        <request index="8"  response="00000111100000011111" foes="10000111100000011111" cont="0"/>
        <request index="9"  response="01110111100000011110" foes="01110111100000011110" cont="1"/>
        <request index="10" response="00000000000000000000" foes="01110000000000000000" cont="0"/>
        <request index="11" response="10000000001000000000" foes="11110000001111110000" cont="0"/>
        <request index="12" response="10000000001000000000" foes="11110000001111110000" cont="0"/>
        <request index="13" response="10000000001000000000" foes="11110000001111110000" cont="0"/>
        <request index="14" response="10000000001000001110" foes="11110000001111001110" cont="1"/>
        <request index="15" response="00000000000000001110" foes="00000000000000001110" cont="0"/>
        <request index="16" response="00000111110000011110" foes="00000111111000011110" cont="0"/>
        <request index="17" response="00000111110000011110" foes="00000111111000011110" cont="0"/>
        <request index="18" response="00000111110000011110" foes="00000111111000011110" cont="0"/>
        <request index="19" response="00000111100111011110" foes="00000111100111011110" cont="1"/>
    </junction>
    <junction id="3" type="dead_end" x="1600.00" y="0.00" incLanes="E1_0 E1_1 E1_2" intLanes="" shape="1600.00,0.00 1600.00,-9.60 1600.00,0.00"/>
    <junction id="4" type="dead_end" x="0.00" y="-800.00" incLanes="E2_0 E2_1 E2_2" intLanes="" shape="0.00,-800.00 -9.60,-800.00 0.00,-800.00"/>
    <junction id="5" type="dead_end" x="0.00" y="800.00" incLanes="E3_0 E3_1 E3_2" intLanes="" shape="0.00,800.00 9.60,800.00 0.00,800.00"/>

    <junction id=":2_20_0" type="internal" x="-0.89" y="8.64" incLanes=":2_4_0 -E2_0 -E2_1 -E2_2" intLanes=":2_6_0 :2_6_1 :2_6_2 :2_9_0 :2_10_0 :2_11_0 :2_11_1 :2_11_2 :2_16_0 :2_16_1 :2_16_2 :2_19_0"/>
    <junction id=":2_21_0" type="internal" x="8.64" y="0.89" incLanes=":2_9_0 E0_0 E0_1 E0_2" intLanes=":2_1_0 :2_1_1 :2_1_2 :2_4_0 :2_11_0 :2_11_1 :2_11_2 :2_14_0 :2_15_0 :2_16_0 :2_16_1 :2_16_2"/>
    <junction id=":2_22_0" type="internal" x="0.89" y="-8.64" incLanes=":2_14_0 -E3_0 -E3_1 -E3_2" intLanes=":2_0_0 :2_1_0 :2_1_1 :2_1_2 :2_6_0 :2_6_1 :2_6_2 :2_9_0 :2_16_0 :2_16_1 :2_16_2 :2_19_0"/>
    <junction id=":2_23_0" type="internal" x="-8.64" y="-0.89" incLanes=":2_19_0 -E1_0 -E1_1 -E1_2" intLanes=":2_1_0 :2_1_1 :2_1_2 :2_4_0 :2_5_0 :2_6_0 :2_6_1 :2_6_2 :2_11_0 :2_11_1 :2_11_2 :2_14_0"/>

    <connection from="-E1" to="E3" fromLane="0" toLane="0" via=":2_5_0" tl="2" linkIndex="5" dir="r" state="o"/>
    <connection from="-E1" to="-E0" fromLane="0" toLane="0" via=":2_6_0" tl="2" linkIndex="6" dir="s" state="o"/>
    <connection from="-E1" to="-E0" fromLane="1" toLane="1" via=":2_6_1" tl="2" linkIndex="7" dir="s" state="o"/>
    <connection from="-E1" to="-E0" fromLane="2" toLane="2" via=":2_6_2" tl="2" linkIndex="8" dir="s" state="o"/>
    <connection from="-E1" to="E2" fromLane="2" toLane="2" via=":2_9_0" tl="2" linkIndex="9" dir="l" state="o"/>
    <connection from="-E2" to="E1" fromLane="0" toLane="0" via=":2_10_0" tl="2" linkIndex="10" dir="r" state="O"/>
    <connection from="-E2" to="E3" fromLane="0" toLane="0" via=":2_11_0" tl="2" linkIndex="11" dir="s" state="O"/>
    <connection from="-E2" to="E3" fromLane="1" toLane="1" via=":2_11_1" tl="2" linkIndex="12" dir="s" state="O"/>
    <connection from="-E2" to="E3" fromLane="2" toLane="2" via=":2_11_2" tl="2" linkIndex="13" dir="s" state="O"/>
    <connection from="-E2" to="-E0" fromLane="2" toLane="2" via=":2_14_0" tl="2" linkIndex="14" dir="l" state="o"/>
    <connection from="-E3" to="-E0" fromLane="0" toLane="0" via=":2_0_0" tl="2" linkIndex="0" dir="r" state="O"/>
    <connection from="-E3" to="E2" fromLane="0" toLane="0" via=":2_1_0" tl="2" linkIndex="1" dir="s" state="O"/>
    <connection from="-E3" to="E2" fromLane="1" toLane="1" via=":2_1_1" tl="2" linkIndex="2" dir="s" state="O"/>
    <connection from="-E3" to="E2" fromLane="2" toLane="2" via=":2_1_2" tl="2" linkIndex="3" dir="s" state="O"/>
    <connection from="-E3" to="E1" fromLane="2" toLane="2" via=":2_4_0" tl="2" linkIndex="4" dir="l" state="o"/>
    <connection from="E0" to="E2" fromLane="0" toLane="0" via=":2_15_0" tl="2" linkIndex="15" dir="r" state="o"/>
    <connection from="E0" to="E1" fromLane="0" toLane="0" via=":2_16_0" tl="2" linkIndex="16" dir="s" state="o"/>
    <connection from="E0" to="E1" fromLane="1" toLane="1" via=":2_16_1" tl="2" linkIndex="17" dir="s" state="o"/>
    <connection from="E0" to="E1" fromLane="2" toLane="2" via=":2_16_2" tl="2" linkIndex="18" dir="s" state="o"/>
    <connection from="E0" to="E3" fromLane="2" toLane="2" via=":2_19_0" tl="2" linkIndex="19" dir="l" state="o"/>

    <connection from=":2_0" to="-E0" fromLane="0" toLane="0" dir="r" state="M"/>
    <connection from=":2_1" to="E2" fromLane="0" toLane="0" dir="s" state="M"/>
    <connection from=":2_1" to="E2" fromLane="1" toLane="1" dir="s" state="M"/>
    <connection from=":2_1" to="E2" fromLane="2" toLane="2" dir="s" state="M"/>
    <connection from=":2_4" to="E1" fromLane="0" toLane="2" via=":2_20_0" dir="l" state="m"/>
    <connection from=":2_20" to="E1" fromLane="0" toLane="2" dir="l" state="M"/>
    <connection from=":2_5" to="E3" fromLane="0" toLane="0" dir="r" state="M"/>
    <connection from=":2_6" to="-E0" fromLane="0" toLane="0" dir="s" state="M"/>
    <connection from=":2_6" to="-E0" fromLane="1" toLane="1" dir="s" state="M"/>
    <connection from=":2_6" to="-E0" fromLane="2" toLane="2" dir="s" state="M"/>
    <connection from=":2_9" to="E2" fromLane="0" toLane="2" via=":2_21_0" dir="l" state="m"/>
    <connection from=":2_21" to="E2" fromLane="0" toLane="2" dir="l" state="M"/>
    <connection from=":2_10" to="E1" fromLane="0" toLane="0" dir="r" state="M"/>
    <connection from=":2_11" to="E3" fromLane="0" toLane="0" dir="s" state="M"/>
    <connection from=":2_11" to="E3" fromLane="1" toLane="1" dir="s" state="M"/>
    <connection from=":2_11" to="E3" fromLane="2" toLane="2" dir="s" state="M"/>
    <connection from=":2_14" to="-E0" fromLane="0" toLane="2" via=":2_22_0" dir="l" state="m"/>
    <connection from=":2_22" to="-E0" fromLane="0" toLane="2" dir="l" state="M"/>
    <connection from=":2_15" to="E2" fromLane="0" toLane="0" dir="r" state="M"/>
    <connection from=":2_16" to="E1" fromLane="0" toLane="0" dir="s" state="M"/>
    <connection from=":2_16" to="E1" fromLane="1" toLane="1" dir="s" state="M"/>
    <connection from=":2_16" to="E1" fromLane="2" toLane="2" dir="s" state="M"/>
    <connection from=":2_19" to="E3" fromLane="0" toLane="2" via=":2_23_0" dir="l" state="m"/>
    <connection from=":2_23" to="E3" fromLane="0" toLane="2" dir="l" state="M"/>

</net>
